/batch
/config,noeldb,1     ! force off writing results to database
*get,_wallstrt,active,,time,wall
! ANSYS input file written by Workbench version 2025 R2
! File used for geometry attach: C:\Users\abdul\OneDrive\Desktop\Femur Bone_files\dp0\SYS\DM\SYS.dsco
/title,Femur Bone--Static Structural (A5)
! ****** Begin Custom Load Command Snippet ******
/COM, ACT Extensions:
/COM,     LSDYNA, 2025.2
/COM,     5f463412-bd3e-484b-87e7-cbc0a665e474, wbex
/COM,/COM,     ANSYSMotion, 2025.2
/COM,     20180725-3f81-49eb-9f31-41364844c769, wbex
/COM,
! ****** End   Custom Load Command Snippet ******
*DIM,_wb_ProjectScratch_dir,string,248
_wb_ProjectScratch_dir(1) = 'C:\Users\abdul\OneDrive\Desktop\_ProjectScratch\Scr7BCC\'
*DIM,_wb_SolverFiles_dir,string,248
_wb_SolverFiles_dir(1) = 'C:\Users\abdul\OneDrive\Desktop\Femur Bone_files\dp0\SYS\MECH\'
*DIM,_wb_userfiles_dir,string,248
_wb_userfiles_dir(1) = 'C:\Users\abdul\OneDrive\Desktop\Femur Bone_files\user_files\'
/com,--- Data in consistent NMM units. See Solving Units in the help system for more information.
/units,MPA
/nopr
/wb,file,start              !  signify a WB generated input file
/prep7
! Turn off shape checking because checks already performed inside WB mesher.
! See help system for more information.
SHPP,OFF,,NOWARN
/nolist
etcon,set             ! allow ANSYS to choose best KEYOP's for 180x elements, resets any applicable keyopt to MAPDL defaults
/com,*********** Send User Defined Coordinate System(s) ***********
csys,0
/com,*********** Nodes for the whole assembly ***********
nblock,3,,26791
(1i9,3e20.9e3)
        1     4.395547947E+02     3.001074730E+00    -1.378315563E+01
        2     4.407461944E+02    -7.193673983E+00    -1.313178223E+01
        3     4.403762272E+02    -3.400488082E-01    -1.357827723E+01
        4     4.407817251E+02    -3.763933771E+00    -1.340054349E+01
        5     4.386558736E+02     6.577924069E+00    -2.231156665E+00
        6     4.393404177E+02     5.068838495E+00    -5.951054604E+00
        7     4.396819294E+02     3.765942296E+00    -9.794575547E+00
        8     4.415178639E+02    -2.766966031E+00     7.097341488E-01
        9     4.410801836E+02     5.239166247E-01    -1.623273858E-01
       10     4.401244975E+02     3.699147414E+00    -1.065795874E+00
       11     4.414701983E+02    -6.498774264E+00    -8.339233405E+00
       12     4.416949475E+02    -4.854601302E+00    -3.725697180E+00
       13     4.348165430E+02    -6.441619765E+00    -2.650140233E+01
       14     4.373448747E+02    -6.940642307E+00    -2.231641289E+01
       15     4.393521176E+02    -7.205610953E+00    -1.784387879E+01
       16     4.339487885E+02     4.475022171E+00    -2.635732437E+01
       17     4.347934176E+02     8.625474636E-01    -2.681774109E+01
       18     4.352899079E+02    -2.835882044E+00    -2.702268395E+01
       19     4.384060455E+02     3.290667151E+00    -1.828686415E+01
       20     4.364804268E+02     3.883151816E+00    -2.248659314E+01
! ... 24337 like lines cut
/com,*********** Nodes for all Remote Points ***********
nblock,3
(1i9,3e20.9e3)
    24357    -4.426031901E+00    -3.130616890E+01    -9.547274571E+00
-1
/wb,elem,start            !  set before creation of elements
/com,*********** Elements for Body 1 'SYS\TRM_SRF' ***********
et,1,187
MAT,1 $ TYPE,1 $ REAL,1 $ SECNUM,1 $ ESYS,0
eblock,11,COMPACT,,13667
(11i9)
        1     1974     3912     3194     3548    15196    22162    15191    15192    23784    22159
        2     1974     3912     2025     3194    15196    15508    15190    15191    22162    15506
        3     1974     1975     3912     3894    15185    15201    15196    15195    15200    24354
        4     1973     1974     1975     3912    15180    15185    15181    15184    15196    15201
        5     1973     1974     3912     2025    15180    15196    15184    15183    15190    15508
        6     3194     3912     3215     3548    22162    22288    22155    22159    23784    22281
        7     2025     3194     3912     3215    15506    22162    15508    15507    22155    22288
        8     3548     3894     3912     3900    23782    24354    23784    23783    24353    24355
        9     2902     3912     3894     3900    19954    24354    19952    19953    24355    24353
       10     1975     2902     3912     3894    15198    19954    15201    15200    19952    24354
       11     3215     3912     3534     3900    22288    23729    22280    22287    24355    23728
       12     2902     3534     3912     3900    19949    23729    19954    19953    23728    24355
       13     1975     3912     2902     3534    15201    19954    15198    15199    23729    19949
       14     1975     1998     3912     3534    15197    15344    15201    15199    15343    23729
       15     1998     3215     3912     3534    15342    22288    15344    15343    22280    23729
       16     3215     3548     3912     3900    22281    23784    22288    22287    23783    24355
       17     1973     1975     1998     3912    15181    15197    15182    15184    15201    15344
       18     1754     3911     2692     3890    13892    19012    13886    13890    24352    19011
       19     1753     3911     2692     1754    13884    19012    13881    13880    13892    13886
       20     1758     2692     3911     3890    13919    19012    13923    13922    19011    24352
! ... 13648 like lines cut
secnum,1    ! reset the section ID to default
! Material Id = {97439127-61A1-41C5-8A13-E43273C8569B}
/wb,elem,end               !  done creating elements
toffst,273.15,      ! Temperature offset from absolute zero
/com,*********** Set Reference Temperature ***********
tref,22.
/wb,mat,start              !  starting to send materials
/com,*********** Send Materials ***********
MP,EX,1,17000,	! tonne s^-2 mm^-1
MP,NUXY,1,0.3,
MP,UVID,1,cd54319e-39bf-4a1c-89c6-0ce608d2632c

/wb,mat,end                !  done sending materials
!************************* Model Summary ********************
!SYS\TRM_SRF,	Cortical Bone,	matid,	1
!************************* End Model Summary ********************
! get the diagonal of the bounding box. Needed later for other things
*get,_xmin,node,,mnloc,x
*get,_ymin,node,,mnloc,y
*get,_zmin,node,,mnloc,z
*get,_xmax,node,,mxloc,x
*get,_ymax,node,,mxloc,y
*get,_zmax,node,,mxloc,z
_ASMDIAG=(_xmax-_xmin)*(_xmax-_xmin)+(_ymax-_ymin)*(_ymax-_ymin)+(_zmax-_zmin)*(_zmax-_zmin)
_ASMDIAG=SQRT(_ASMDIAG)
/wb,contact,start          !  starting to send contact
/wb,contact,end            !  done creating contacts
/com,*********** Send Named Selection as Element Component ***********
esel,s,type,,1
cm,TRM_SRF,elem
esel,all
/golist
/wb,load,start             !  starting to send loads
/com,*********** Fixed Supports ***********
CMBLOCK,_FIXEDSU,NODE,      362
(8i10)
         1       -49        54       -91        95      -116       125      -141
       151      -179       192      -198       209      -218       223      -227
       241      -245       252      -254       256      -258      2848      2850
     -2852      2854      2855      2858     -2860      2862     -2865      3914
     -3917      3919     -3922      3924     -3928      3932     -3934      3936
     -3939      3941     -3946      3949     -3951      3956     -3959      3961
     -3963      3966      3967      3970     -3972      3975      3976      3980
     -3983      3987     -3991      3994     -3996      3998     -4001      4004
     -4008      4011      4012      4015     -4018      4024     -4026      4030
     -4032      4034      4038     -4042      4046     -4048      4051      4052
      4056      4059      4063     -4065      4068      4069      4072      4074
      4076      4082      4085     -4087      4092     -4094      4097     -4099
      4102      4103      4109      4110      4126     -4130      4133     -4136
      4139     -4142      4144     -4146      4148     -4151      4155     -4160
      4164     -4168      4173     -4177      4182     -4185      4187     -4189
      4192     -4195      4199     -4201      4205      4206      4234     -4237
      4239     -4242      4245      4247     -4250      4252     -4256      4260
     -4262      4266      4267      4270      4271      4276     -4279      4281
     -4283      4286     -4289      4291     -4295      4299     -4301      4304
      4305      4309     -4311      4313      4314      4317      4318      4322
! ... 26 like lines cut
cmsel,s,_FIXEDSU
d,all,all
nsel,all
/com,*********** Create Remote Point "Internal Remote Point" ***********
! -------- Remote Point Used by "Remote Force" --------
*set,tid,3
*set,cid,2
et,cid,174
et,tid,170
keyo,tid,2,1               ! Don't fix the pilot node
keyo,tid,4,111111
keyo,cid,12,5              ! Bonded Contact 
keyo,cid,4,1               ! Deformable RBE3 style load
keyo,cid,2,2               ! MPC style contact
MAT,2 $ TYPE,2 $ REAL,2 $ SECNUM,2 $ ESYS,0
eblock,11,COMPACT,,517
(11i9)
    19397     2018     2019     2065     2065    15462    15470     2065    15464
    19398     2063     2066     2064     2064    15753    15759     2064    15752
    19399     2018     2065     2064     2064    15464    15758     2064    15463
    19400     2017     2064     2062     2062    15458    15746     2062    15457
    19401     2018     2064     2017     2017    15463    15458     2017    15455
    19402     2013     2065     2019     2019    15429    15470     2019    15427
    19403     2066     2062     2064     2064    15747    15746     2064    15759
    19404     2061     2062     2066     2066    15739    15747     2066    15740
    19405     2058     2061     2066     2066    15721    15740     2066    15722
    19406     2038     2039     2070     2070    15586    15593     2070    15588
    19407     2063     2064     2071     2071    15752    15761     2071    15754
    19408     2031     2070     2039     2039    15542    15593     2039    15541
    19409     2013     2038     2065     2065    15428    15587     2065    15429
    19410     2038     2070     2065     2065    15588    15768     2065    15587
    19411     2068     2065     2069     2069    15766    15767     2069    15784
    19412     2065     2070     2069     2069    15768    15791     2069    15767
    19413     2064     2065     2068     2068    15758    15766     2068    15760
    19414     2064     2068     2071     2071    15760    15785     2071    15761
    19415     2067     2071     2068     2068    15780    15785     2068    15779
    19416     2066     2091     2058     2058    15774    15723     2058    15722
! ... 498 like lines cut
secnum,1    ! reset the section ID to default
*set,_npilot,24357
_npilot35=_npilot
type,tid
mat ,cid
real,cid
tshape,pilo
en,19914,_npilot
tshape
/com,*********** Construct Remote Force ***********
/gst,on,on
fini
*get,_numnode,node,0,count
*get,_numelem,elem,0,count
*get, _MAXELEMNUM, elem, 0, NUM, MAX
*get, _MAXNODENUM, node, 0, NUM, MAX
*get, _MAXELEMTYPE, etyp, 0, NUM, MAX
*get, _MAXREALCONST, rcon, 0, NUM, MAX
/go
/wb,load,end               !  done creating loads
/com,--- Number of total nodes = %_numnode%
/com,--- Number of contact elements = 517
/com,--- Number of spring elements = 0
/com,--- Number of bearing elements = 0
/com,--- Number of solid elements = 13667
/com,--- Number of condensed parts = 0
/com,--- Number of total elements = %_numelem%
*get,_wallbsol,active,,time,wall
/com,****************************************************************************
/com,*************************    SOLUTION       ********************************
/com,****************************************************************************
/solu
antype,0                   ! static analysis
_thickRatio=  1     ! Ratio of thick parts in the model
eqsl,pcg,1e-8,,,,,,1
cntr,print,1               ! print out contact info and also make no initial contact an error
cncheck,dmp		!	Enable program controlled contact splitting for distributed memory parallel run
dmpoption,emat,no             ! Don't combine emat file for DANSYS
dmpoption,esav,no             ! Don't combine esav file for DANSYS
nldiag,cont,iter           ! print out contact info each equilibrium iteration
rescontrol,,none                 ! Do not keep any restart files
/com,****************************************************
/com,******************* SOLVE FOR LS 1 OF 1 ****************
f,24357,fx,1500.
f,24357,fy,0.
f,24357,fz,0.
/nopr
/gopr
nsub,1,1,1
time,1.
outres,erase
outres,all,none
outres,nsol,all,
outres,rsol,all
outres,eangl,all
outres,etmp,all
outres,veng,all
outres,strs,all,
outres,epel,all,
outres,eppl,all,
outres,cont,all,
! *********** WB SOLVE COMMAND ***********
! check interactive state
*get,ANSINTER_,active,,int
*if,ANSINTER_,ne,0,then
/eof
*endif
solve
/com *************** Write FE CONNECTORS ********* 
CEWRITE,file,ce,,INTE
/com,****************************************************
/com,*************** FINISHED SOLVE FOR LS 1 *************
*get,_wallasol,active,,time,wall
/nopr
*get,_numnode,node,0,count
*get,_numelem,elem,0,count
*get, _MAXELEMNUM, elem, 0, NUM, MAX
*get, _MAXNODENUM, node, 0, NUM, MAX,,,INTERNAL
*get, _MAXELEMTYPE, etyp, 0, NUM, MAX
*get, _MAXREALCONST, rcon, 0, NUM, MAX
*get,_NSOLTHREADS,active,0,ntfs
*get,_NSOLPROCESSES,active,0,npfs
/gopr
*get,_PCGITER,active,,solu,cgiter
/post1
xmlo,ENCODING,ISO-8859-1
xmlo,parm
/xml,parm,xml
fini
/gopr
*get,_walldone,active,,time,wall
_preptime=(_wallbsol-_wallstrt)*3600
_solvtime=(_wallasol-_wallbsol)*3600
_posttime=(_walldone-_wallasol)*3600
_totaltim=(_walldone-_wallstrt)*3600
*get,_dlbratio,active,0,solu,dlbr
*get,_combtime,active,0,solu,comb
*get,_ssmode,active,0,solu,ssmm
*get,_ndofs,active,0,solu,ndof
*get,_sol_end_time,active,0,set,time
*if,_sol_end_time,eq,1.000000,then
/fclean				!clean distributed files
*endif
/com,--- Total number of nodes = %_numnode%
/com,--- Total number of elements = %_numelem%
/com,--- Element load balance ratio = %_dlbratio%
/com,--- Time to combine distributed files = %_combtime%
/com,--- Sparse memory mode = %_ssmode%
/com,--- Number of DOF = %_ndofs%
/wb,file,end               ! done with WB generated input
